                                  MODFLOW-2000
      U.S. GEOLOGICAL SURVEY MODULAR FINITE-DIFFERENCE GROUND-WATER FLOW MODEL
                           VERSION 1.15.00 08/06/2004


 This model run produced both GLOBAL and LIST files.  This is the LIST file.

 
 # MODULAR MODEL - TWO-LAYER EXAMPLE PROBLEM, TEST CASE TC1                      
 #                                                                               
 THE FREE FORMAT OPTION HAS BEEN SELECTED
    3 LAYERS        18 ROWS        18 COLUMNS
    5 STRESS PERIOD(S) IN SIMULATION

 BAS6 -- BASIC PACKAGE, VERSION 6, 1/11/2000 INPUT READ FROM UNIT   41
         15 ELEMENTS IN IR ARRAY ARE USED BY BAS

 WEL6 -- WELL PACKAGE, VERSION 6, 1/11/2000 INPUT READ FROM UNIT   43
     1 Named Parameters         2 List entries
 MAXIMUM OF      2 ACTIVE WELLS AT ONE TIME
         16 ELEMENTS IN RX ARRAY ARE USED BY WEL

 RIV6 -- RIVER PACKAGE, VERSION 6, 1/11/2000 INPUT READ FROM UNIT   47
 # RIV file for test case tc1
 #
     1 Named Parameters        18 List entries
 MAXIMUM OF     18 ACTIVE RIVER REACHES AT ONE TIME
        216 ELEMENTS IN RX ARRAY ARE USED BY RIV

 GHB6 -- GHB PACKAGE, VERSION 6, 1/11/2000 INPUT READ FROM UNIT   46
 No named parameters
 MAXIMUM OF     36 ACTIVE GHB CELLS AT ONE TIME
        180 ELEMENTS IN RX ARRAY ARE USED BY GHB

 RCH6 -- RECHARGE PACKAGE, VERSION 6, 1/11/2000 INPUT READ FROM UNIT   48
     2 Named Parameters     
 OPTION 1 -- RECHARGE TO TOP LAYER
        324 ELEMENTS IN RX ARRAY ARE USED BY RCH
        324 ELEMENTS IN IR ARRAY ARE USED BY RCH

        736  ELEMENTS OF RX ARRAY USED OUT OF        736
        339  ELEMENTS OF IR ARRAY USED OUT OF        339
1
 # MODULAR MODEL - TWO-LAYER EXAMPLE PROBLEM, TEST CASE TC1                      
 #                                                                               

           BOUNDARY ARRAY =              1 FOR LAYER   1

           BOUNDARY ARRAY =              1 FOR LAYER   2

           BOUNDARY ARRAY =              1 FOR LAYER   3

 AQUIFER HEAD WILL BE SET TO  0.0000     AT ALL NO-FLOW NODES (IBOUND=0).

             INITIAL HEAD =   200.000     FOR LAYER   1

             INITIAL HEAD =   200.000     FOR LAYER   2

             INITIAL HEAD =   200.000     FOR LAYER   3

 OUTPUT CONTROL IS SPECIFIED ONLY AT TIME STEPS FOR WHICH OUTPUT IS DESIRED
 HEAD PRINT FORMAT CODE IS  14    DRAWDOWN PRINT FORMAT CODE IS   0
 HEADS WILL BE SAVED ON UNIT    0    DRAWDOWNS WILL BE SAVED ON UNIT    0

    HYD. COND. ALONG ROWS is defined by the following parameters:
 HK_1      

    HYD. COND. ALONG ROWS =  3.000000E-04 FOR LAYER   1

  HORIZ. TO VERTICAL ANI. is defined by the following parameters:
 VERT_ANI_1

  HORIZ. TO VERTICAL ANI. =   1.00000     FOR LAYER   1

         SPECIFIC STORAGE is defined by the following parameters:
 SS_1      

         SPECIFIC STORAGE =  2.600000E-05 FOR LAYER   1

           SPECIFIC YIELD is defined by the following parameters:
 SY_1      

           SPECIFIC YIELD =  2.000000E-03 FOR LAYER   1

    HYD. COND. ALONG ROWS is defined by the following parameters:
 HK_1      

    HYD. COND. ALONG ROWS =  3.000000E-04 FOR LAYER   2

  HORIZ. TO VERTICAL ANI. is defined by the following parameters:
 VERT_ANI_1

  HORIZ. TO VERTICAL ANI. =   1.00000     FOR LAYER   2

         SPECIFIC STORAGE is defined by the following parameters:
 SS_1      

         SPECIFIC STORAGE =  2.600000E-05 FOR LAYER   2

           SPECIFIC YIELD is defined by the following parameters:
 SY_1      

           SPECIFIC YIELD =  2.000000E-03 FOR LAYER   2

 QUASI3D VERT. HYD. COND. is defined by the following parameters:
 VERT_K_CB 

 QUASI3D VERT. HYD. COND. =  1.000000E-07 FOR LAYER   2

    HYD. COND. ALONG ROWS is defined by the following parameters:
 HK_2      


              HYD. COND. ALONG ROWS FOR LAYER   3

          1         2         3         4         5         6         7
          8         9        10        11        12        13        14
         15        16        17        18
 ......................................................................
   1   4.00E-05  4.00E-05  8.00E-05  8.00E-05  1.20E-04  1.20E-04  1.60E-04
       1.60E-04  2.00E-04  2.00E-04  2.40E-04  2.40E-04  2.80E-04  2.80E-04
       3.20E-04  3.20E-04  3.60E-04  3.60E-04
   2   4.00E-05  4.00E-05  8.00E-05  8.00E-05  1.20E-04  1.20E-04  1.60E-04
       1.60E-04  2.00E-04  2.00E-04  2.40E-04  2.40E-04  2.80E-04  2.80E-04
       3.20E-04  3.20E-04  3.60E-04  3.60E-04
   3   4.00E-05  4.00E-05  8.00E-05  8.00E-05  1.20E-04  1.20E-04  1.60E-04
       1.60E-04  2.00E-04  2.00E-04  2.40E-04  2.40E-04  2.80E-04  2.80E-04
       3.20E-04  3.20E-04  3.60E-04  3.60E-04
   4   4.00E-05  4.00E-05  8.00E-05  8.00E-05  1.20E-04  1.20E-04  1.60E-04
       1.60E-04  2.00E-04  2.00E-04  2.40E-04  2.40E-04  2.80E-04  2.80E-04
       3.20E-04  3.20E-04  3.60E-04  3.60E-04
   5   4.00E-05  4.00E-05  8.00E-05  8.00E-05  1.20E-04  1.20E-04  1.60E-04
       1.60E-04  2.00E-04  2.00E-04  2.40E-04  2.40E-04  2.80E-04  2.80E-04
       3.20E-04  3.20E-04  3.60E-04  3.60E-04
   6   4.00E-05  4.00E-05  8.00E-05  8.00E-05  1.20E-04  1.20E-04  1.60E-04
       1.60E-04  2.00E-04  2.00E-04  2.40E-04  2.40E-04  2.80E-04  2.80E-04
       3.20E-04  3.20E-04  3.60E-04  3.60E-04
   7   4.00E-05  4.00E-05  8.00E-05  8.00E-05  1.20E-04  1.20E-04  1.60E-04
       1.60E-04  2.00E-04  2.00E-04  2.40E-04  2.40E-04  2.80E-04  2.80E-04
       3.20E-04  3.20E-04  3.60E-04  3.60E-04
   8   4.00E-05  4.00E-05  8.00E-05  8.00E-05  1.20E-04  1.20E-04  1.60E-04
       1.60E-04  2.00E-04  2.00E-04  2.40E-04  2.40E-04  2.80E-04  2.80E-04
       3.20E-04  3.20E-04  3.60E-04  3.60E-04
   9   4.00E-05  4.00E-05  8.00E-05  8.00E-05  1.20E-04  1.20E-04  1.60E-04
       1.60E-04  2.00E-04  2.00E-04  2.40E-04  2.40E-04  2.80E-04  2.80E-04
       3.20E-04  3.20E-04  3.60E-04  3.60E-04
  10   4.00E-05  4.00E-05  8.00E-05  8.00E-05  1.20E-04  1.20E-04  1.60E-04
       1.60E-04  2.00E-04  2.00E-04  2.40E-04  2.40E-04  2.80E-04  2.80E-04
       3.20E-04  3.20E-04  3.60E-04  3.60E-04
  11   4.00E-05  4.00E-05  8.00E-05  8.00E-05  1.20E-04  1.20E-04  1.60E-04
       1.60E-04  2.00E-04  2.00E-04  2.40E-04  2.40E-04  2.80E-04  2.80E-04
       3.20E-04  3.20E-04  3.60E-04  3.60E-04
  12   4.00E-05  4.00E-05  8.00E-05  8.00E-05  1.20E-04  1.20E-04  1.60E-04
       1.60E-04  2.00E-04  2.00E-04  2.40E-04  2.40E-04  2.80E-04  2.80E-04
       3.20E-04  3.20E-04  3.60E-04  3.60E-04
  13   4.00E-05  4.00E-05  8.00E-05  8.00E-05  1.20E-04  1.20E-04  1.60E-04
       1.60E-04  2.00E-04  2.00E-04  2.40E-04  2.40E-04  2.80E-04  2.80E-04
       3.20E-04  3.20E-04  3.60E-04  3.60E-04
  14   4.00E-05  4.00E-05  8.00E-05  8.00E-05  1.20E-04  1.20E-04  1.60E-04
       1.60E-04  2.00E-04  2.00E-04  2.40E-04  2.40E-04  2.80E-04  2.80E-04
       3.20E-04  3.20E-04  3.60E-04  3.60E-04
  15   4.00E-05  4.00E-05  8.00E-05  8.00E-05  1.20E-04  1.20E-04  1.60E-04
       1.60E-04  2.00E-04  2.00E-04  2.40E-04  2.40E-04  2.80E-04  2.80E-04
       3.20E-04  3.20E-04  3.60E-04  3.60E-04
  16   4.00E-05  4.00E-05  8.00E-05  8.00E-05  1.20E-04  1.20E-04  1.60E-04
       1.60E-04  2.00E-04  2.00E-04  2.40E-04  2.40E-04  2.80E-04  2.80E-04
       3.20E-04  3.20E-04  3.60E-04  3.60E-04
  17   4.00E-05  4.00E-05  8.00E-05  8.00E-05  1.20E-04  1.20E-04  1.60E-04
       1.60E-04  2.00E-04  2.00E-04  2.40E-04  2.40E-04  2.80E-04  2.80E-04
       3.20E-04  3.20E-04  3.60E-04  3.60E-04
  18   4.00E-05  4.00E-05  8.00E-05  8.00E-05  1.20E-04  1.20E-04  1.60E-04
       1.60E-04  2.00E-04  2.00E-04  2.40E-04  2.40E-04  2.80E-04  2.80E-04
       3.20E-04  3.20E-04  3.60E-04  3.60E-04

  HORIZ. TO VERTICAL ANI. is defined by the following parameters:
 VERT_ANI_2

  HORIZ. TO VERTICAL ANI. =   1.00000     FOR LAYER   3

         SPECIFIC STORAGE is defined by the following parameters:
 SS_2      

         SPECIFIC STORAGE =  4.000000E-06 FOR LAYER   3

           SPECIFIC YIELD is defined by the following parameters:
 SY_2      

           SPECIFIC YIELD =  4.600000E-04 FOR LAYER   3
1
                            STRESS PERIOD NO.    1, LENGTH =   1.000000    
                            -----------------------------------------------

                              NUMBER OF TIME STEPS =     1

                               MULTIPLIER FOR DELT =     1.000

                            INITIAL TIME STEP SIZE =   1.000000    

      0 WELLS

 Parameter:  RIVERS
 REACH NO.  LAYER   ROW   COL     STAGE      CONDUCTANCE     BOTTOM EL.         
 -------------------------------------------------------------------------------
      1      1      1      1       100.0           1.200           90.00    
      2      1      2      1       100.0           1.200           90.00    
      3      1      3      1       100.0           1.200           90.00    
      4      1      4      1       100.0           1.200           90.00    
      5      1      5      1       100.0           1.200           90.00    
      6      1      6      1       100.0           1.200           90.00    
      7      1      7      1       100.0           1.200           90.00    
      8      1      8      1       100.0           1.200           90.00    
      9      1      9      1       100.0           1.200           90.00    
     10      1     10      1       100.0           1.200           90.00    
     11      1     11      1       100.0           1.200           90.00    
     12      1     12      1       100.0           1.200           90.00    
     13      1     13      1       100.0           1.200           90.00    
     14      1     14      1       100.0           1.200           90.00    
     15      1     15      1       100.0           1.200           90.00    
     16      1     16      1       100.0           1.200           90.00    
     17      1     17      1       100.0           1.200           90.00    
     18      1     18      1       100.0           1.200           90.00    

     18 RIVER REACHES

 BOUND. NO. LAYER   ROW   COL     STAGE      CONDUCTANCE         
 ----------------------------------------------------------------
      1      1      1     18       350.0          0.1000E-06
      2      1      2     18       350.0          0.1000E-06
      3      1      3     18       350.0          0.1000E-06
      4      1      4     18       350.0          0.1000E-06
      5      1      5     18       350.0          0.1000E-06
      6      1      6     18       350.0          0.1000E-06
      7      1      7     18       350.0          0.1000E-06
      8      1      8     18       350.0          0.1000E-06
      9      1      9     18       350.0          0.1000E-06
     10      1     10     18       350.0          0.1000E-06
     11      1     11     18       350.0          0.1000E-06
     12      1     12     18       350.0          0.1000E-06
     13      1     13     18       350.0          0.1000E-06
     14      1     14     18       350.0          0.1000E-06
     15      1     15     18       350.0          0.1000E-06
     16      1     16     18       350.0          0.1000E-06
     17      1     17     18       350.0          0.1000E-06
     18      1     18     18       350.0          0.1000E-06
     19      2      1     18       350.0          0.1000E-06
     20      2      2     18       350.0          0.1000E-06
     21      2      3     18       350.0          0.1000E-06
     22      2      4     18       350.0          0.1000E-06
     23      2      5     18       350.0          0.1000E-06
     24      2      6     18       350.0          0.1000E-06
     25      2      7     18       350.0          0.1000E-06
     26      2      8     18       350.0          0.1000E-06
     27      2      9     18       350.0          0.1000E-06
     28      2     10     18       350.0          0.1000E-06
     29      2     11     18       350.0          0.1000E-06
     30      2     12     18       350.0          0.1000E-06
     31      2     13     18       350.0          0.1000E-06
     32      2     14     18       350.0          0.1000E-06
     33      2     15     18       350.0          0.1000E-06
     34      2     16     18       350.0          0.1000E-06
     35      2     17     18       350.0          0.1000E-06
     36      2     18     18       350.0          0.1000E-06

     36 GHB CELLS



 RECH array defined by the following parameters:
 Parameter:  RCH_ZONE_1
 Parameter:  RCH_ZONE_2


                           RECHARGE

            1           2           3           4           5           6
            7           8           9          10          11          12
           13          14          15          16          17          18
 ........................................................................
   1   2.0009E-08  2.0009E-08  2.0009E-08  2.0009E-08  2.0009E-08  2.0009E-08
       2.0009E-08  2.0009E-08  2.0009E-08  9.9886E-09  9.9886E-09  9.9886E-09
       9.9886E-09  9.9886E-09  9.9886E-09  9.9886E-09  9.9886E-09  9.9886E-09
   2   2.0009E-08  2.0009E-08  2.0009E-08  2.0009E-08  2.0009E-08  2.0009E-08
       2.0009E-08  2.0009E-08  2.0009E-08  9.9886E-09  9.9886E-09  9.9886E-09
       9.9886E-09  9.9886E-09  9.9886E-09  9.9886E-09  9.9886E-09  9.9886E-09
   3   2.0009E-08  2.0009E-08  2.0009E-08  2.0009E-08  2.0009E-08  2.0009E-08
       2.0009E-08  2.0009E-08  2.0009E-08  9.9886E-09  9.9886E-09  9.9886E-09
       9.9886E-09  9.9886E-09  9.9886E-09  9.9886E-09  9.9886E-09  9.9886E-09
   4   2.0009E-08  2.0009E-08  2.0009E-08  2.0009E-08  2.0009E-08  2.0009E-08
       2.0009E-08  2.0009E-08  2.0009E-08  9.9886E-09  9.9886E-09  9.9886E-09
       9.9886E-09  9.9886E-09  9.9886E-09  9.9886E-09  9.9886E-09  9.9886E-09
   5   2.0009E-08  2.0009E-08  2.0009E-08  2.0009E-08  2.0009E-08  2.0009E-08
       2.0009E-08  2.0009E-08  2.0009E-08  9.9886E-09  9.9886E-09  9.9886E-09
       9.9886E-09  9.9886E-09  9.9886E-09  9.9886E-09  9.9886E-09  9.9886E-09
   6   2.0009E-08  2.0009E-08  2.0009E-08  2.0009E-08  2.0009E-08  2.0009E-08
       2.0009E-08  2.0009E-08  2.0009E-08  9.9886E-09  9.9886E-09  9.9886E-09
       9.9886E-09  9.9886E-09  9.9886E-09  9.9886E-09  9.9886E-09  9.9886E-09
   7   2.0009E-08  2.0009E-08  2.0009E-08  2.0009E-08  2.0009E-08  2.0009E-08
       2.0009E-08  2.0009E-08  2.0009E-08  9.9886E-09  9.9886E-09  9.9886E-09
       9.9886E-09  9.9886E-09  9.9886E-09  9.9886E-09  9.9886E-09  9.9886E-09
   8   2.0009E-08  2.0009E-08  2.0009E-08  2.0009E-08  2.0009E-08  2.0009E-08
       2.0009E-08  2.0009E-08  2.0009E-08  9.9886E-09  9.9886E-09  9.9886E-09
       9.9886E-09  9.9886E-09  9.9886E-09  9.9886E-09  9.9886E-09  9.9886E-09
   9   2.0009E-08  2.0009E-08  2.0009E-08  2.0009E-08  2.0009E-08  2.0009E-08
       2.0009E-08  2.0009E-08  2.0009E-08  9.9886E-09  9.9886E-09  9.9886E-09
       9.9886E-09  9.9886E-09  9.9886E-09  9.9886E-09  9.9886E-09  9.9886E-09
  10   2.0009E-08  2.0009E-08  2.0009E-08  2.0009E-08  2.0009E-08  2.0009E-08
       2.0009E-08  2.0009E-08  2.0009E-08  9.9886E-09  9.9886E-09  9.9886E-09
       9.9886E-09  9.9886E-09  9.9886E-09  9.9886E-09  9.9886E-09  9.9886E-09
  11   2.0009E-08  2.0009E-08  2.0009E-08  2.0009E-08  2.0009E-08  2.0009E-08
       2.0009E-08  2.0009E-08  2.0009E-08  9.9886E-09  9.9886E-09  9.9886E-09
       9.9886E-09  9.9886E-09  9.9886E-09  9.9886E-09  9.9886E-09  9.9886E-09
  12   2.0009E-08  2.0009E-08  2.0009E-08  2.0009E-08  2.0009E-08  2.0009E-08
       2.0009E-08  2.0009E-08  2.0009E-08  9.9886E-09  9.9886E-09  9.9886E-09
       9.9886E-09  9.9886E-09  9.9886E-09  9.9886E-09  9.9886E-09  9.9886E-09
  13   2.0009E-08  2.0009E-08  2.0009E-08  2.0009E-08  2.0009E-08  2.0009E-08
       2.0009E-08  2.0009E-08  2.0009E-08  9.9886E-09  9.9886E-09  9.9886E-09
       9.9886E-09  9.9886E-09  9.9886E-09  9.9886E-09  9.9886E-09  9.9886E-09
  14   2.0009E-08  2.0009E-08  2.0009E-08  2.0009E-08  2.0009E-08  2.0009E-08
       2.0009E-08  2.0009E-08  2.0009E-08  9.9886E-09  9.9886E-09  9.9886E-09
       9.9886E-09  9.9886E-09  9.9886E-09  9.9886E-09  9.9886E-09  9.9886E-09
  15   2.0009E-08  2.0009E-08  2.0009E-08  2.0009E-08  2.0009E-08  2.0009E-08
       2.0009E-08  2.0009E-08  2.0009E-08  9.9886E-09  9.9886E-09  9.9886E-09
       9.9886E-09  9.9886E-09  9.9886E-09  9.9886E-09  9.9886E-09  9.9886E-09
  16   2.0009E-08  2.0009E-08  2.0009E-08  2.0009E-08  2.0009E-08  2.0009E-08
       2.0009E-08  2.0009E-08  2.0009E-08  9.9886E-09  9.9886E-09  9.9886E-09
       9.9886E-09  9.9886E-09  9.9886E-09  9.9886E-09  9.9886E-09  9.9886E-09
  17   2.0009E-08  2.0009E-08  2.0009E-08  2.0009E-08  2.0009E-08  2.0009E-08
       2.0009E-08  2.0009E-08  2.0009E-08  9.9886E-09  9.9886E-09  9.9886E-09
       9.9886E-09  9.9886E-09  9.9886E-09  9.9886E-09  9.9886E-09  9.9886E-09
  18   2.0009E-08  2.0009E-08  2.0009E-08  2.0009E-08  2.0009E-08  2.0009E-08
       2.0009E-08  2.0009E-08  2.0009E-08  9.9886E-09  9.9886E-09  9.9886E-09
       9.9886E-09  9.9886E-09  9.9886E-09  9.9886E-09  9.9886E-09  9.9886E-09
 
 SOLVING FOR HEAD 

 CELL CONVERSIONS FOR ITER.=  1  LAYER=  1  STEP=  1  PERIOD=   1   (ROW,COL)
    DRY(  1,  5)   DRY(  1,  6)   DRY(  1,  7)   DRY(  1,  8)   DRY(  1,  9)   
    DRY(  1, 10)   DRY(  1, 11)   DRY(  1, 12)   DRY(  1, 13)   DRY(  1, 14)   
    DRY(  1, 15)   DRY(  1, 16)   DRY(  1, 17)   DRY(  1, 18)   DRY(  2,  5)   
    DRY(  2,  6)   DRY(  2,  7)   DRY(  2,  8)   DRY(  2,  9)   DRY(  2, 10)   
    DRY(  2, 11)   DRY(  2, 12)   DRY(  2, 13)   DRY(  2, 14)   DRY(  2, 15)   
    DRY(  2, 16)   DRY(  2, 17)   DRY(  2, 18)   DRY(  3,  5)   DRY(  3,  6)   
    DRY(  3,  7)   DRY(  3,  8)   DRY(  3,  9)   DRY(  3, 10)   DRY(  3, 11)   
    DRY(  3, 12)   DRY(  3, 13)   DRY(  3, 14)   DRY(  3, 15)   DRY(  3, 16)   
    DRY(  3, 17)   DRY(  3, 18)   DRY(  4,  5)   DRY(  4,  6)   DRY(  4,  7)   
    DRY(  4,  8)   DRY(  4,  9)   DRY(  4, 10)   DRY(  4, 11)   DRY(  4, 12)   
    DRY(  4, 13)   DRY(  4, 14)   DRY(  4, 15)   DRY(  4, 16)   DRY(  4, 17)   
    DRY(  4, 18)   DRY(  5,  5)   DRY(  5,  6)   DRY(  5,  7)   DRY(  5,  8)   
    DRY(  5,  9)   DRY(  5, 10)   DRY(  5, 11)   DRY(  5, 12)   DRY(  5, 13)   
    DRY(  5, 14)   DRY(  5, 15)   DRY(  5, 16)   DRY(  5, 17)   DRY(  5, 18)   
    DRY(  6,  5)   DRY(  6,  6)   DRY(  6,  7)   DRY(  6,  8)   DRY(  6,  9)   
    DRY(  6, 10)   DRY(  6, 11)   DRY(  6, 12)   DRY(  6, 13)   DRY(  6, 14)   
    DRY(  6, 15)   DRY(  6, 16)   DRY(  6, 17)   DRY(  6, 18)   DRY(  7,  5)   
    DRY(  7,  6)   DRY(  7,  7)   DRY(  7,  8)   DRY(  7,  9)   DRY(  7, 10)   
    DRY(  7, 11)   DRY(  7, 12)   DRY(  7, 13)   DRY(  7, 14)   DRY(  7, 15)   
    DRY(  7, 16)   DRY(  7, 17)   DRY(  7, 18)   DRY(  8,  5)   DRY(  8,  6)   
    DRY(  8,  7)   DRY(  8,  8)   DRY(  8,  9)   DRY(  8, 10)   DRY(  8, 11)   
    DRY(  8, 12)   DRY(  8, 13)   DRY(  8, 14)   DRY(  8, 15)   DRY(  8, 16)   
    DRY(  8, 17)   DRY(  8, 18)   DRY(  9,  5)   DRY(  9,  6)   DRY(  9,  7)   
    DRY(  9,  8)   DRY(  9,  9)   DRY(  9, 10)   DRY(  9, 11)   DRY(  9, 12)   
    DRY(  9, 13)   DRY(  9, 14)   DRY(  9, 15)   DRY(  9, 16)   DRY(  9, 17)   
    DRY(  9, 18)   DRY( 10,  5)   DRY( 10,  6)   DRY( 10,  7)   DRY( 10,  8)   
    DRY( 10,  9)   DRY( 10, 10)   DRY( 10, 11)   DRY( 10, 12)   DRY( 10, 13)   
    DRY( 10, 14)   DRY( 10, 15)   DRY( 10, 16)   DRY( 10, 17)   DRY( 10, 18)   
    DRY( 11,  5)   DRY( 11,  6)   DRY( 11,  7)   DRY( 11,  8)   DRY( 11,  9)   
    DRY( 11, 10)   DRY( 11, 11)   DRY( 11, 12)   DRY( 11, 13)   DRY( 11, 14)   
    DRY( 11, 15)   DRY( 11, 16)   DRY( 11, 17)   DRY( 11, 18)   DRY( 12,  5)   
    DRY( 12,  6)   DRY( 12,  7)   DRY( 12,  8)   DRY( 12,  9)   DRY( 12, 10)   
    DRY( 12, 11)   DRY( 12, 12)   DRY( 12, 13)   DRY( 12, 14)   DRY( 12, 15)   
    DRY( 12, 16)   DRY( 12, 17)   DRY( 12, 18)   DRY( 13,  5)   DRY( 13,  6)   
    DRY( 13,  7)   DRY( 13,  8)   DRY( 13,  9)   DRY( 13, 10)   DRY( 13, 11)   
    DRY( 13, 12)   DRY( 13, 13)   DRY( 13, 14)   DRY( 13, 15)   DRY( 13, 16)   
    DRY( 13, 17)   DRY( 13, 18)   DRY( 14,  5)   DRY( 14,  6)   DRY( 14,  7)   
    DRY( 14,  8)   DRY( 14,  9)   DRY( 14, 10)   DRY( 14, 11)   DRY( 14, 12)   
    DRY( 14, 13)   DRY( 14, 14)   DRY( 14, 15)   DRY( 14, 16)   DRY( 14, 17)   
    DRY( 14, 18)   DRY( 15,  5)   DRY( 15,  6)   DRY( 15,  7)   DRY( 15,  8)   
    DRY( 15,  9)   DRY( 15, 10)   DRY( 15, 11)   DRY( 15, 12)   DRY( 15, 13)   
    DRY( 15, 14)   DRY( 15, 15)   DRY( 15, 16)   DRY( 15, 17)   DRY( 15, 18)   
    DRY( 16,  5)   DRY( 16,  6)   DRY( 16,  7)   DRY( 16,  8)   DRY( 16,  9)   
    DRY( 16, 10)   DRY( 16, 11)   DRY( 16, 12)   DRY( 16, 13)   DRY( 16, 14)   
    DRY( 16, 15)   DRY( 16, 16)   DRY( 16, 17)   DRY( 16, 18)   DRY( 17,  5)   
    DRY( 17,  6)   DRY( 17,  7)   DRY( 17,  8)   DRY( 17,  9)   DRY( 17, 10)   
    DRY( 17, 11)   DRY( 17, 12)   DRY( 17, 13)   DRY( 17, 14)   DRY( 17, 15)   
    DRY( 17, 16)   DRY( 17, 17)   DRY( 17, 18)   DRY( 18,  5)   DRY( 18,  6)   
    DRY( 18,  7)   DRY( 18,  8)   DRY( 18,  9)   DRY( 18, 10)   DRY( 18, 11)   
    DRY( 18, 12)   DRY( 18, 13)   DRY( 18, 14)   DRY( 18, 15)   DRY( 18, 16)   
    DRY( 18, 17)   DRY( 18, 18)   

 OUTPUT CONTROL FOR STRESS PERIOD    1   TIME STEP   1
    PRINT HEAD FOR ALL LAYERS
1
              HEAD IN LAYER   1 AT END OF TIME STEP   1 IN STRESS PERIOD    1
  ---------------------------------------------------------------------------

          1      2      3      4      5      6      7      8      9     10
         11     12     13     14     15     16     17     18
 .........................................................................
   1   100.1  102.2  103.5  104.1 -999.0 -999.0 -999.0 -999.0 -999.0 -999.0
      -999.0 -999.0 -999.0 -999.0 -999.0 -999.0 -999.0 -999.0
   2   100.1  102.2  103.5  104.1 -999.0 -999.0 -999.0 -999.0 -999.0 -999.0
      -999.0 -999.0 -999.0 -999.0 -999.0 -999.0 -999.0 -999.0
   3   100.1  102.2  103.5  104.1 -999.0 -999.0 -999.0 -999.0 -999.0 -999.0
      -999.0 -999.0 -999.0 -999.0 -999.0 -999.0 -999.0 -999.0
   4   100.1  102.2  103.5  104.1 -999.0 -999.0 -999.0 -999.0 -999.0 -999.0
      -999.0 -999.0 -999.0 -999.0 -999.0 -999.0 -999.0 -999.0
   5   100.1  102.2  103.5  104.1 -999.0 -999.0 -999.0 -999.0 -999.0 -999.0
      -999.0 -999.0 -999.0 -999.0 -999.0 -999.0 -999.0 -999.0
   6   100.1  102.2  103.5  104.1 -999.0 -999.0 -999.0 -999.0 -999.0 -999.0
      -999.0 -999.0 -999.0 -999.0 -999.0 -999.0 -999.0 -999.0
   7   100.1  102.2  103.5  104.1 -999.0 -999.0 -999.0 -999.0 -999.0 -999.0
      -999.0 -999.0 -999.0 -999.0 -999.0 -999.0 -999.0 -999.0
   8   100.1  102.2  103.5  104.1 -999.0 -999.0 -999.0 -999.0 -999.0 -999.0
      -999.0 -999.0 -999.0 -999.0 -999.0 -999.0 -999.0 -999.0
   9   100.1  102.2  103.5  104.1 -999.0 -999.0 -999.0 -999.0 -999.0 -999.0
      -999.0 -999.0 -999.0 -999.0 -999.0 -999.0 -999.0 -999.0
  10   100.1  102.2  103.5  104.1 -999.0 -999.0 -999.0 -999.0 -999.0 -999.0
      -999.0 -999.0 -999.0 -999.0 -999.0 -999.0 -999.0 -999.0
  11   100.1  102.2  103.5  104.1 -999.0 -999.0 -999.0 -999.0 -999.0 -999.0
      -999.0 -999.0 -999.0 -999.0 -999.0 -999.0 -999.0 -999.0
  12   100.1  102.2  103.5  104.1 -999.0 -999.0 -999.0 -999.0 -999.0 -999.0
      -999.0 -999.0 -999.0 -999.0 -999.0 -999.0 -999.0 -999.0
  13   100.1  102.2  103.5  104.1 -999.0 -999.0 -999.0 -999.0 -999.0 -999.0
      -999.0 -999.0 -999.0 -999.0 -999.0 -999.0 -999.0 -999.0
  14   100.1  102.2  103.5  104.1 -999.0 -999.0 -999.0 -999.0 -999.0 -999.0
      -999.0 -999.0 -999.0 -999.0 -999.0 -999.0 -999.0 -999.0
  15   100.1  102.2  103.5  104.1 -999.0 -999.0 -999.0 -999.0 -999.0 -999.0
      -999.0 -999.0 -999.0 -999.0 -999.0 -999.0 -999.0 -999.0
  16   100.1  102.2  103.5  104.1 -999.0 -999.0 -999.0 -999.0 -999.0 -999.0
      -999.0 -999.0 -999.0 -999.0 -999.0 -999.0 -999.0 -999.0
  17   100.1  102.2  103.5  104.1 -999.0 -999.0 -999.0 -999.0 -999.0 -999.0
      -999.0 -999.0 -999.0 -999.0 -999.0 -999.0 -999.0 -999.0
  18   100.1  102.2  103.5  104.1 -999.0 -999.0 -999.0 -999.0 -999.0 -999.0
      -999.0 -999.0 -999.0 -999.0 -999.0 -999.0 -999.0 -999.0
1
              HEAD IN LAYER   2 AT END OF TIME STEP   1 IN STRESS PERIOD    1
  ---------------------------------------------------------------------------

          1      2      3      4      5      6      7      8      9     10
         11     12     13     14     15     16     17     18
 .........................................................................
   1   100.1  102.2  103.5  104.1  104.1  104.1  104.1  104.1  104.1  104.1
       104.1  104.1  104.1  104.1  104.1  104.1  104.1  104.1
   2   100.1  102.2  103.5  104.1  104.1  104.1  104.1  104.1  104.1  104.1
       104.1  104.1  104.1  104.1  104.1  104.1  104.1  104.1
   3   100.1  102.2  103.5  104.1  104.1  104.1  104.1  104.1  104.1  104.1
       104.1  104.1  104.1  104.1  104.1  104.1  104.1  104.1
   4   100.1  102.2  103.5  104.1  104.1  104.1  104.1  104.1  104.1  104.1
       104.1  104.1  104.1  104.1  104.1  104.1  104.1  104.1
   5   100.1  102.2  103.5  104.1  104.1  104.1  104.1  104.1  104.1  104.1
       104.1  104.1  104.1  104.1  104.1  104.1  104.1  104.1
   6   100.1  102.2  103.5  104.1  104.1  104.1  104.1  104.1  104.1  104.1
       104.1  104.1  104.1  104.1  104.1  104.1  104.1  104.1
   7   100.1  102.2  103.5  104.1  104.1  104.1  104.1  104.1  104.1  104.1
       104.1  104.1  104.1  104.1  104.1  104.1  104.1  104.1
   8   100.1  102.2  103.5  104.1  104.1  104.1  104.1  104.1  104.1  104.1
       104.1  104.1  104.1  104.1  104.1  104.1  104.1  104.1
   9   100.1  102.2  103.5  104.1  104.1  104.1  104.1  104.1  104.1  104.1
       104.1  104.1  104.1  104.1  104.1  104.1  104.1  104.1
  10   100.1  102.2  103.5  104.1  104.1  104.1  104.1  104.1  104.1  104.1
       104.1  104.1  104.1  104.1  104.1  104.1  104.1  104.1
  11   100.1  102.2  103.5  104.1  104.1  104.1  104.1  104.1  104.1  104.1
       104.1  104.1  104.1  104.1  104.1  104.1  104.1  104.1
  12   100.1  102.2  103.5  104.1  104.1  104.1  104.1  104.1  104.1  104.1
       104.1  104.1  104.1  104.1  104.1  104.1  104.1  104.1
  13   100.1  102.2  103.5  104.1  104.1  104.1  104.1  104.1  104.1  104.1
       104.1  104.1  104.1  104.1  104.1  104.1  104.1  104.1
  14   100.1  102.2  103.5  104.1  104.1  104.1  104.1  104.1  104.1  104.1
       104.1  104.1  104.1  104.1  104.1  104.1  104.1  104.1
  15   100.1  102.2  103.5  104.1  104.1  104.1  104.1  104.1  104.1  104.1
       104.1  104.1  104.1  104.1  104.1  104.1  104.1  104.1
  16   100.1  102.2  103.5  104.1  104.1  104.1  104.1  104.1  104.1  104.1
       104.1  104.1  104.1  104.1  104.1  104.1  104.1  104.1
  17   100.1  102.2  103.5  104.1  104.1  104.1  104.1  104.1  104.1  104.1
       104.1  104.1  104.1  104.1  104.1  104.1  104.1  104.1
  18   100.1  102.2  103.5  104.1  104.1  104.1  104.1  104.1  104.1  104.1
       104.1  104.1  104.1  104.1  104.1  104.1  104.1  104.1
1
              HEAD IN LAYER   3 AT END OF TIME STEP   1 IN STRESS PERIOD    1
  ---------------------------------------------------------------------------

          1      2      3      4      5      6      7      8      9     10
         11     12     13     14     15     16     17     18
 .........................................................................
   1   100.4  102.2  103.4  103.9  104.1  104.1  104.1  104.1  104.1  104.1
       104.1  104.1  104.1  104.1  104.1  104.1  104.1  104.1
   2   100.4  102.2  103.4  103.9  104.1  104.1  104.1  104.1  104.1  104.1
       104.1  104.1  104.1  104.1  104.1  104.1  104.1  104.1
   3   100.4  102.2  103.4  103.9  104.1  104.1  104.1  104.1  104.1  104.1
       104.1  104.1  104.1  104.1  104.1  104.1  104.1  104.1
   4   100.4  102.2  103.4  103.9  104.1  104.1  104.1  104.1  104.1  104.1
       104.1  104.1  104.1  104.1  104.1  104.1  104.1  104.1
   5   100.4  102.2  103.4  103.9  104.1  104.1  104.1  104.1  104.1  104.1
       104.1  104.1  104.1  104.1  104.1  104.1  104.1  104.1
   6   100.4  102.2  103.4  103.9  104.1  104.1  104.1  104.1  104.1  104.1
       104.1  104.1  104.1  104.1  104.1  104.1  104.1  104.1
   7   100.4  102.2  103.4  103.9  104.1  104.1  104.1  104.1  104.1  104.1
       104.1  104.1  104.1  104.1  104.1  104.1  104.1  104.1
   8   100.4  102.2  103.4  103.9  104.1  104.1  104.1  104.1  104.1  104.1
       104.1  104.1  104.1  104.1  104.1  104.1  104.1  104.1
   9   100.4  102.2  103.4  103.9  104.1  104.1  104.1  104.1  104.1  104.1
       104.1  104.1  104.1  104.1  104.1  104.1  104.1  104.1
  10   100.4  102.2  103.4  103.9  104.1  104.1  104.1  104.1  104.1  104.1
       104.1  104.1  104.1  104.1  104.1  104.1  104.1  104.1
  11   100.4  102.2  103.4  103.9  104.1  104.1  104.1  104.1  104.1  104.1
       104.1  104.1  104.1  104.1  104.1  104.1  104.1  104.1
  12   100.4  102.2  103.4  103.9  104.1  104.1  104.1  104.1  104.1  104.1
       104.1  104.1  104.1  104.1  104.1  104.1  104.1  104.1
  13   100.4  102.2  103.4  103.9  104.1  104.1  104.1  104.1  104.1  104.1
       104.1  104.1  104.1  104.1  104.1  104.1  104.1  104.1
  14   100.4  102.2  103.4  103.9  104.1  104.1  104.1  104.1  104.1  104.1
       104.1  104.1  104.1  104.1  104.1  104.1  104.1  104.1
  15   100.4  102.2  103.4  103.9  104.1  104.1  104.1  104.1  104.1  104.1
       104.1  104.1  104.1  104.1  104.1  104.1  104.1  104.1
  16   100.4  102.2  103.4  103.9  104.1  104.1  104.1  104.1  104.1  104.1
       104.1  104.1  104.1  104.1  104.1  104.1  104.1  104.1
  17   100.4  102.2  103.4  103.9  104.1  104.1  104.1  104.1  104.1  104.1
       104.1  104.1  104.1  104.1  104.1  104.1  104.1  104.1
  18   100.4  102.2  103.4  103.9  104.1  104.1  104.1  104.1  104.1  104.1
       104.1  104.1  104.1  104.1  104.1  104.1  104.1  104.1
1
  VOLUMETRIC BUDGET FOR ENTIRE MODEL AT END OF TIME STEP  1 IN STRESS PERIOD   1
  ------------------------------------------------------------------------------

     CUMULATIVE VOLUMES      L**3       RATES FOR THIS TIME STEP      L**3/T
     ------------------                 ------------------------

           IN:                                      IN:
           ---                                      ---
             STORAGE =           0.0000               STORAGE =           0.0000
       CONSTANT HEAD =           0.0000         CONSTANT HEAD =           0.0000
               WELLS =           0.0000                 WELLS =           0.0000
       RIVER LEAKAGE =           0.0000         RIVER LEAKAGE =           0.0000
     HEAD DEP BOUNDS =       4.4263E-04       HEAD DEP BOUNDS =       4.4263E-04
            RECHARGE =           1.4406              RECHARGE =           1.4406

            TOTAL IN =           1.4411              TOTAL IN =           1.4411

          OUT:                                     OUT:
          ----                                     ----
             STORAGE =           0.0000               STORAGE =           0.0000
       CONSTANT HEAD =           0.0000         CONSTANT HEAD =           0.0000
               WELLS =           0.0000                 WELLS =           0.0000
       RIVER LEAKAGE =           1.4412         RIVER LEAKAGE =           1.4412
     HEAD DEP BOUNDS =           0.0000       HEAD DEP BOUNDS =           0.0000
            RECHARGE =           0.0000              RECHARGE =           0.0000

           TOTAL OUT =           1.4412             TOTAL OUT =           1.4412

            IN - OUT =      -1.4030E-04              IN - OUT =      -1.4030E-04

 PERCENT DISCREPANCY =          -0.01     PERCENT DISCREPANCY =          -0.01






          TIME SUMMARY AT END OF TIME STEP   1 IN STRESS PERIOD    1
                    SECONDS     MINUTES      HOURS       DAYS        YEARS
                    -----------------------------------------------------------
   TIME STEP LENGTH  1.0000     1.66667E-02 2.77778E-04 1.15741E-05 3.16881E-08
 STRESS PERIOD TIME  1.0000     1.66667E-02 2.77778E-04 1.15741E-05 3.16881E-08
         TOTAL TIME  1.0000     1.66667E-02 2.77778E-04 1.15741E-05 3.16881E-08
1

 HEAD OBS#    9, ID obs3.0       IS DRY -- OMIT (OBS1BAS6HFM)

 HEAD OBS#   15, ID obs5.0       IS DRY -- OMIT (OBS1BAS6HFM)

     2 OF   69 OBSERVATIONS OMITTED.  EXECUTION STOPS IF NUMBER OF REMAINING
 OBSERVATIONS IS LESS THAN OR EQUAL TO NUMBER OF PARAMETERS
1
                            STRESS PERIOD NO.    2, LENGTH =   87162.00    
                            -----------------------------------------------

                              NUMBER OF TIME STEPS =     1

                               MULTIPLIER FOR DELT =     1.000

                            INITIAL TIME STEP SIZE =   87162.00    

 Parameter:  WELLS_TR
 WELL NO.  LAYER   ROW   COL   STRESS RATE         
 --------------------------------------------------
      1      1      9     10      -1.100    
      2      2      9     10      -1.100    

      2 WELLS

 Parameter:  RIVERS
 REACH NO.  LAYER   ROW   COL     STAGE      CONDUCTANCE     BOTTOM EL.         
 -------------------------------------------------------------------------------
      1      1      1      1       100.0           1.200           90.00    
      2      1      2      1       100.0           1.200           90.00    
      3      1      3      1       100.0           1.200           90.00    
      4      1      4      1       100.0           1.200           90.00    
      5      1      5      1       100.0           1.200           90.00    
      6      1      6      1       100.0           1.200           90.00    
      7      1      7      1       100.0           1.200           90.00    
      8      1      8      1       100.0           1.200           90.00    
      9      1      9      1       100.0           1.200           90.00    
     10      1     10      1       100.0           1.200           90.00    
     11      1     11      1       100.0           1.200           90.00    
     12      1     12      1       100.0           1.200           90.00    
     13      1     13      1       100.0           1.200           90.00    
     14      1     14      1       100.0           1.200           90.00    
     15      1     15      1       100.0           1.200           90.00    
     16      1     16      1       100.0           1.200           90.00    
     17      1     17      1       100.0           1.200           90.00    
     18      1     18      1       100.0           1.200           90.00    

     18 RIVER REACHES

 REUSING NON-PARAMETER GHB CELLS FROM LAST STRESS PERIOD

     36 GHB CELLS

 REUSING RECH FROM LAST STRESS PERIOD
 
 SOLVING FOR HEAD 

 CELL CONVERSIONS FOR ITER.=  1  LAYER=  1  STEP=  1  PERIOD=   2   (ROW,COL)
    DRY(  1,  1)   DRY(  1,  2)   DRY(  1,  3)   DRY(  1,  4)   DRY(  2,  1)   
    DRY(  2,  2)   DRY(  2,  3)   DRY(  2,  4)   DRY(  3,  1)   DRY(  3,  2)   
    DRY(  3,  3)   DRY(  3,  4)   DRY(  4,  1)   DRY(  4,  2)   DRY(  4,  3)   
    DRY(  4,  4)   DRY(  5,  1)   DRY(  5,  2)   DRY(  5,  3)   DRY(  5,  4)   
    DRY(  6,  1)   DRY(  6,  2)   DRY(  6,  3)   DRY(  6,  4)   DRY(  7,  1)   
    DRY(  7,  2)   DRY(  7,  3)   DRY(  7,  4)   DRY(  8,  1)   DRY(  8,  2)   
    DRY(  8,  3)   DRY(  8,  4)   DRY(  9,  1)   DRY(  9,  2)   DRY(  9,  3)   
    DRY(  9,  4)   DRY( 10,  1)   DRY( 10,  2)   DRY( 10,  3)   DRY( 10,  4)   
    DRY( 11,  1)   DRY( 11,  2)   DRY( 11,  3)   DRY( 11,  4)   DRY( 12,  1)   
    DRY( 12,  2)   DRY( 12,  3)   DRY( 12,  4)   DRY( 13,  1)   DRY( 13,  2)   
    DRY( 13,  3)   DRY( 13,  4)   DRY( 14,  1)   DRY( 14,  2)   DRY( 14,  3)   
    DRY( 14,  4)   DRY( 15,  1)   DRY( 15,  2)   DRY( 15,  3)   DRY( 15,  4)   
    DRY( 16,  1)   DRY( 16,  2)   DRY( 16,  3)   DRY( 16,  4)   DRY( 17,  1)   
    DRY( 17,  2)   DRY( 17,  3)   DRY( 17,  4)   DRY( 18,  1)   DRY( 18,  2)   
    DRY( 18,  3)   DRY( 18,  4)   

 CELL CONVERSIONS FOR ITER.=  1  LAYER=  2  STEP=  1  PERIOD=   2   (ROW,COL)
    DRY( 10,  9)   DRY( 14,  6)   

 CELL CONVERSIONS FOR ITER.=  1  LAYER=  3  STEP=  1  PERIOD=   2   (ROW,COL)
    DRY( 10,  9)   

 OUTPUT CONTROL FOR STRESS PERIOD    2   TIME STEP   1
    PRINT HEAD FOR ALL LAYERS
1
              HEAD IN LAYER   1 AT END OF TIME STEP   1 IN STRESS PERIOD    2
  ---------------------------------------------------------------------------

          1      2      3      4      5      6      7      8      9     10
         11     12     13     14     15     16     17     18
 .........................................................................
   1  -999.0 -999.0 -999.0 -999.0 -999.0 -999.0 -999.0 -999.0 -999.0 -999.0
      -999.0 -999.0 -999.0 -999.0 -999.0 -999.0 -999.0 -999.0
   2  -999.0 -999.0 -999.0 -999.0 -999.0 -999.0 -999.0 -999.0 -999.0 -999.0
      -999.0 -999.0 -999.0 -999.0 -999.0 -999.0 -999.0 -999.0
   3  -999.0 -999.0 -999.0 -999.0 -999.0 -999.0 -999.0 -999.0 -999.0 -999.0
      -999.0 -999.0 -999.0 -999.0 -999.0 -999.0 -999.0 -999.0
   4  -999.0 -999.0 -999.0 -999.0 -999.0 -999.0 -999.0 -999.0 -999.0 -999.0
      -999.0 -999.0 -999.0 -999.0 -999.0 -999.0 -999.0 -999.0
   5  -999.0 -999.0 -999.0 -999.0 -999.0 -999.0 -999.0 -999.0 -999.0 -999.0
      -999.0 -999.0 -999.0 -999.0 -999.0 -999.0 -999.0 -999.0
   6  -999.0 -999.0 -999.0 -999.0 -999.0 -999.0 -999.0 -999.0 -999.0 -999.0
      -999.0 -999.0 -999.0 -999.0 -999.0 -999.0 -999.0 -999.0
   7  -999.0 -999.0 -999.0 -999.0 -999.0 -999.0 -999.0 -999.0 -999.0 -999.0
      -999.0 -999.0 -999.0 -999.0 -999.0 -999.0 -999.0 -999.0
   8  -999.0 -999.0 -999.0 -999.0 -999.0 -999.0 -999.0 -999.0 -999.0 -999.0
      -999.0 -999.0 -999.0 -999.0 -999.0 -999.0 -999.0 -999.0
   9  -999.0 -999.0 -999.0 -999.0 -999.0 -999.0 -999.0 -999.0 -999.0 -999.0
      -999.0 -999.0 -999.0 -999.0 -999.0 -999.0 -999.0 -999.0
  10  -999.0 -999.0 -999.0 -999.0 -999.0 -999.0 -999.0 -999.0 -999.0 -999.0
      -999.0 -999.0 -999.0 -999.0 -999.0 -999.0 -999.0 -999.0
  11  -999.0 -999.0 -999.0 -999.0 -999.0 -999.0 -999.0 -999.0 -999.0 -999.0
      -999.0 -999.0 -999.0 -999.0 -999.0 -999.0 -999.0 -999.0
  12  -999.0 -999.0 -999.0 -999.0 -999.0 -999.0 -999.0 -999.0 -999.0 -999.0
      -999.0 -999.0 -999.0 -999.0 -999.0 -999.0 -999.0 -999.0
  13  -999.0 -999.0 -999.0 -999.0 -999.0 -999.0 -999.0 -999.0 -999.0 -999.0
      -999.0 -999.0 -999.0 -999.0 -999.0 -999.0 -999.0 -999.0
  14  -999.0 -999.0 -999.0 -999.0 -999.0 -999.0 -999.0 -999.0 -999.0 -999.0
      -999.0 -999.0 -999.0 -999.0 -999.0 -999.0 -999.0 -999.0
  15  -999.0 -999.0 -999.0 -999.0 -999.0 -999.0 -999.0 -999.0 -999.0 -999.0
      -999.0 -999.0 -999.0 -999.0 -999.0 -999.0 -999.0 -999.0
  16  -999.0 -999.0 -999.0 -999.0 -999.0 -999.0 -999.0 -999.0 -999.0 -999.0
      -999.0 -999.0 -999.0 -999.0 -999.0 -999.0 -999.0 -999.0
  17  -999.0 -999.0 -999.0 -999.0 -999.0 -999.0 -999.0 -999.0 -999.0 -999.0
      -999.0 -999.0 -999.0 -999.0 -999.0 -999.0 -999.0 -999.0
  18  -999.0 -999.0 -999.0 -999.0 -999.0 -999.0 -999.0 -999.0 -999.0 -999.0
      -999.0 -999.0 -999.0 -999.0 -999.0 -999.0 -999.0 -999.0
1
              HEAD IN LAYER   2 AT END OF TIME STEP   1 IN STRESS PERIOD    2
  ---------------------------------------------------------------------------

          1      2      3      4      5      6      7      8      9     10
         11     12     13     14     15     16     17     18
 .........................................................................
   1   100.2  102.2  103.4  104.0  104.1  104.1  104.1  104.1  104.1  104.1
       104.1  104.1  104.1  104.1  104.1  104.1  104.1  104.1
   2   100.2  102.2  103.4  104.0  104.1  104.1  104.1  104.1  104.1  104.1
       104.1  104.1  104.1  104.1  104.1  104.1  104.1  104.1
   3   100.2  102.2  103.4  104.0  104.1  104.1  104.1  104.1  104.1  104.1
       104.1  104.1  104.1  104.1  104.1  104.1  104.1  104.1
   4   100.2  102.2  103.4  104.0  104.1  104.1  104.1  104.1  104.1  104.1
       104.1  104.1  104.1  104.1  104.1  104.1  104.1  104.1
   5   100.2  102.2  103.4  104.0  104.1  104.1  104.1  104.1  104.1  104.1
       104.1  104.1  104.1  104.1  104.1  104.1  104.1  104.1
   6   100.2  102.2  103.4  104.0  104.1  104.1  104.1  104.1  104.0  104.0
       104.0  104.1  104.1  104.1  104.1  104.1  104.1  104.1
   7   100.2  102.2  103.4  104.0  104.1  104.1  104.1  104.0  103.9  103.8
       103.9  104.0  104.0  104.1  104.1  104.1  104.1  104.1
   8   100.2  102.2  103.4  104.0  104.1  104.1  104.0  103.9  103.6  102.4
       103.6  103.9  104.0  104.1  104.1  104.1  104.1  104.1
   9   100.2  102.2  103.4  104.0  104.1  104.1  104.0  103.8  102.2   72.7
       102.4  103.8  104.0  104.1  104.1  104.1  104.1  104.1
  10   100.2  102.2  103.4  104.0  104.1  104.1  104.0  104.0 -999.0  102.3
       103.6  103.9  104.0  104.1  104.1  104.1  104.1  104.1
  11   100.2  102.2  103.4  104.0  104.1  104.1  104.1  104.0  104.0  103.8
       103.9  104.0  104.0  104.1  104.1  104.1  104.1  104.1
  12   100.2  102.2  103.4  104.0  104.1  104.1  104.1  104.1  104.0  104.0
       104.0  104.0  104.1  104.1  104.1  104.1  104.1  104.1
  13   100.2  102.2  103.4  104.0  104.1  104.1  104.1  104.1  104.1  104.1
       104.1  104.1  104.1  104.1  104.1  104.1  104.1  104.1
  14   100.2  102.2  103.4  104.0  104.1 -999.0  104.1  104.1  104.1  104.1
       104.1  104.1  104.1  104.1  104.1  104.1  104.1  104.1
  15   100.2  102.2  103.4  104.0  104.1  104.1  104.1  104.1  104.1  104.1
       104.1  104.1  104.1  104.1  104.1  104.1  104.1  104.1
  16   100.2  102.2  103.4  104.0  104.1  104.1  104.1  104.1  104.1  104.1
       104.1  104.1  104.1  104.1  104.1  104.1  104.1  104.1
  17   100.2  102.2  103.4  104.0  104.1  104.1  104.1  104.1  104.1  104.1
       104.1  104.1  104.1  104.1  104.1  104.1  104.1  104.1
  18   100.2  102.2  103.4  104.0  104.1  104.1  104.1  104.1  104.1  104.1
       104.1  104.1  104.1  104.1  104.1  104.1  104.1  104.1
1
              HEAD IN LAYER   3 AT END OF TIME STEP   1 IN STRESS PERIOD    2
  ---------------------------------------------------------------------------

          1      2      3      4      5      6      7      8      9     10
         11     12     13     14     15     16     17     18
 .........................................................................
   1   100.5  102.2  103.4  103.9  104.0  104.1  104.1  104.1  104.1  104.1
       104.1  104.1  104.1  104.1  104.1  104.1  104.1  104.1
   2   100.5  102.2  103.4  103.9  104.0  104.1  104.1  104.1  104.1  104.1
       104.1  104.1  104.1  104.1  104.1  104.1  104.1  104.1
   3   100.5  102.2  103.4  103.9  104.0  104.1  104.1  104.1  104.1  104.1
       104.1  104.1  104.1  104.1  104.1  104.1  104.1  104.1
   4   100.5  102.2  103.4  103.9  104.0  104.1  104.1  104.1  104.1  104.1
       104.1  104.1  104.1  104.1  104.1  104.1  104.1  104.1
   5   100.5  102.2  103.4  103.9  104.0  104.1  104.1  104.0  104.0  104.0
       104.0  104.0  104.1  104.1  104.1  104.1  104.1  104.1
   6   100.5  102.2  103.4  103.9  104.0  104.0  104.0  104.0  103.9  103.8
       103.9  104.0  104.0  104.1  104.1  104.1  104.1  104.1
   7   100.5  102.2  103.4  103.9  104.0  104.0  104.0  103.8  103.6  103.3
       103.6  103.8  104.0  104.0  104.1  104.1  104.1  104.1
   8   100.5  102.2  103.4  103.9  104.0  104.0  103.9  103.6  102.8  101.6
       102.9  103.6  103.9  104.0  104.1  104.1  104.1  104.1
   9   100.5  102.2  103.4  103.9  104.0  104.0  103.8  103.3  101.2   96.2
       101.7  103.3  103.8  104.0  104.0  104.1  104.1  104.1
  10   100.5  102.2  103.4  103.9  104.0  104.0  104.0  103.8 -999.0  101.3
       102.8  103.6  103.9  104.0  104.1  104.1  104.1  104.1
  11   100.5  102.2  103.4  103.9  104.0  104.0  104.0  104.0  103.8  103.3
       103.6  103.8  104.0  104.0  104.1  104.1  104.1  104.1
  12   100.5  102.2  103.4  103.9  104.0  104.1  104.1  104.0  104.0  103.8
       103.9  104.0  104.0  104.1  104.1  104.1  104.1  104.1
  13   100.5  102.2  103.4  103.9  104.0  104.1  104.1  104.1  104.0  104.0
       104.0  104.0  104.1  104.1  104.1  104.1  104.1  104.1
  14   100.5  102.2  103.4  103.9  104.0  104.1  104.1  104.1  104.1  104.1
       104.1  104.1  104.1  104.1  104.1  104.1  104.1  104.1
  15   100.5  102.2  103.4  103.9  104.0  104.1  104.1  104.1  104.1  104.1
       104.1  104.1  104.1  104.1  104.1  104.1  104.1  104.1
  16   100.5  102.2  103.4  103.9  104.0  104.1  104.1  104.1  104.1  104.1
       104.1  104.1  104.1  104.1  104.1  104.1  104.1  104.1
  17   100.5  102.2  103.4  103.9  104.0  104.1  104.1  104.1  104.1  104.1
       104.1  104.1  104.1  104.1  104.1  104.1  104.1  104.1
  18   100.5  102.2  103.4  103.9  104.0  104.1  104.1  104.1  104.1  104.1
       104.1  104.1  104.1  104.1  104.1  104.1  104.1  104.1
1
  VOLUMETRIC BUDGET FOR ENTIRE MODEL AT END OF TIME STEP  1 IN STRESS PERIOD   2
  ------------------------------------------------------------------------------

     CUMULATIVE VOLUMES      L**3       RATES FOR THIS TIME STEP      L**3/T
     ------------------                 ------------------------

           IN:                                      IN:
           ---                                      ---
             STORAGE =      102193.1020               STORAGE =           1.1725
       CONSTANT HEAD =           0.0000         CONSTANT HEAD =           0.0000
               WELLS =           0.0000                 WELLS =           0.0000
       RIVER LEAKAGE =           0.0000         RIVER LEAKAGE =           0.0000
     HEAD DEP BOUNDS =          38.5813       HEAD DEP BOUNDS =       4.4263E-04
            RECHARGE =           1.4406              RECHARGE =           0.0000

            TOTAL IN =      102233.1250              TOTAL IN =           1.1729

          OUT:                                     OUT:
          ----                                     ----
             STORAGE =        6354.3525               STORAGE =       7.2903E-02
       CONSTANT HEAD =           0.0000         CONSTANT HEAD =           0.0000
               WELLS =       95878.2031                 WELLS =           1.1000
       RIVER LEAKAGE =           1.4412         RIVER LEAKAGE =           0.0000
     HEAD DEP BOUNDS =           0.0000       HEAD DEP BOUNDS =           0.0000
            RECHARGE =           0.0000              RECHARGE =           0.0000

           TOTAL OUT =      102234.0000             TOTAL OUT =           1.1729

            IN - OUT =          -0.8734              IN - OUT =      -9.9888E-06

 PERCENT DISCREPANCY =           0.00     PERCENT DISCREPANCY =           0.00






          TIME SUMMARY AT END OF TIME STEP   1 IN STRESS PERIOD    2
                    SECONDS     MINUTES      HOURS       DAYS        YEARS
                    -----------------------------------------------------------
   TIME STEP LENGTH  87162.      1452.7      24.212      1.0088     2.76200E-03
 STRESS PERIOD TIME  87162.      1452.7      24.212      1.0088     2.76200E-03
         TOTAL TIME  87163.      1452.7      24.212      1.0088     2.76203E-03
1

 HEAD OBS#    2, ID obs1.1       IS DRY -- OMIT (OBS1BAS6HFM)

 HEAD OBS#    5, ID obs2.1       IS DRY -- OMIT (OBS1BAS6HFM)

 HEAD OBS#   10, ID obs3.1       OMITTED BECAUSE INITIAL OBSERVATION IS DRY OR
 HAS HAD ITS INTERPOLATION CHANGED (OBS1BAS6HFM)

 HEAD OBS#   13, ID obs4.1       IS DRY -- OMIT (OBS1BAS6HFM)

 HEAD OBS#   16, ID obs5.1       OMITTED BECAUSE INITIAL OBSERVATION IS DRY OR
 HAS HAD ITS INTERPOLATION CHANGED (OBS1BAS6HFM)

 HEAD OBS#   27, ID obs3.1d1     IS DRY -- OMIT (OBS1BAS6HFM)

 HEAD OBS#   33, ID obs5.1d1     IS DRY -- OMIT (OBS1BAS6HFM)

 HEAD OBS#   44, ID obs3.1d2     IS DRY -- OMIT (OBS1BAS6HFM)

 HEAD OBS#   59, ID obs8.1       IS DRY -- OMIT (OBS1BAS6HFM)

    11 OF   69 OBSERVATIONS OMITTED.  EXECUTION STOPS IF NUMBER OF REMAINING
 OBSERVATIONS IS LESS THAN OR EQUAL TO NUMBER OF PARAMETERS
1
                            STRESS PERIOD NO.    3, LENGTH =   261486.0    
                            -----------------------------------------------

                              NUMBER OF TIME STEPS =     1

                               MULTIPLIER FOR DELT =     1.000

                            INITIAL TIME STEP SIZE =   261486.0    

 Parameter:  WELLS_TR
 WELL NO.  LAYER   ROW   COL   STRESS RATE         
 --------------------------------------------------
      1      1      9     10      -1.100    
      2      2      9     10      -1.100    

      2 WELLS

 Parameter:  RIVERS
 REACH NO.  LAYER   ROW   COL     STAGE      CONDUCTANCE     BOTTOM EL.         
 -------------------------------------------------------------------------------
      1      1      1      1       100.0           1.200           90.00    
      2      1      2      1       100.0           1.200           90.00    
      3      1      3      1       100.0           1.200           90.00    
      4      1      4      1       100.0           1.200           90.00    
      5      1      5      1       100.0           1.200           90.00    
      6      1      6      1       100.0           1.200           90.00    
      7      1      7      1       100.0           1.200           90.00    
      8      1      8      1       100.0           1.200           90.00    
      9      1      9      1       100.0           1.200           90.00    
     10      1     10      1       100.0           1.200           90.00    
     11      1     11      1       100.0           1.200           90.00    
     12      1     12      1       100.0           1.200           90.00    
     13      1     13      1       100.0           1.200           90.00    
     14      1     14      1       100.0           1.200           90.00    
     15      1     15      1       100.0           1.200           90.00    
     16      1     16      1       100.0           1.200           90.00    
     17      1     17      1       100.0           1.200           90.00    
     18      1     18      1       100.0           1.200           90.00    

     18 RIVER REACHES

 REUSING NON-PARAMETER GHB CELLS FROM LAST STRESS PERIOD

     36 GHB CELLS

 REUSING RECH FROM LAST STRESS PERIOD
 
 SOLVING FOR HEAD 

 CELL CONVERSIONS FOR ITER.=  1  LAYER=  2  STEP=  1  PERIOD=   3   (ROW,COL)
    DRY(  9, 10)   

 NO OUTPUT CONTROL FOR STRESS PERIOD    3   TIME STEP   1
1
  VOLUMETRIC BUDGET FOR ENTIRE MODEL AT END OF TIME STEP  1 IN STRESS PERIOD   3
  ------------------------------------------------------------------------------

     CUMULATIVE VOLUMES      L**3       RATES FOR THIS TIME STEP      L**3/T
     ------------------                 ------------------------

           IN:                                      IN:
           ---                                      ---
             STORAGE =      128077.6170               STORAGE =       9.8990E-02
       CONSTANT HEAD =           0.0000         CONSTANT HEAD =           0.0000
               WELLS =           0.0000                 WELLS =           0.0000
       RIVER LEAKAGE =           0.0000         RIVER LEAKAGE =           0.0000
     HEAD DEP BOUNDS =         154.3254       HEAD DEP BOUNDS =       4.4264E-04
            RECHARGE =           1.4406              RECHARGE =           0.0000

            TOTAL IN =      128233.3830              TOTAL IN =       9.9433E-02

          OUT:                                     OUT:
          ----                                     ----
             STORAGE =       32356.5762               STORAGE =       9.9440E-02
       CONSTANT HEAD =           0.0000         CONSTANT HEAD =           0.0000
               WELLS =       95878.2031                 WELLS =           0.0000
       RIVER LEAKAGE =           1.4412         RIVER LEAKAGE =           0.0000
     HEAD DEP BOUNDS =           0.0000       HEAD DEP BOUNDS =           0.0000
            RECHARGE =           0.0000              RECHARGE =           0.0000

           TOTAL OUT =      128236.2190             TOTAL OUT =       9.9440E-02

            IN - OUT =          -2.8373              IN - OUT =      -7.5020E-06

 PERCENT DISCREPANCY =           0.00     PERCENT DISCREPANCY =          -0.01






          TIME SUMMARY AT END OF TIME STEP   1 IN STRESS PERIOD    3
                    SECONDS     MINUTES      HOURS       DAYS        YEARS
                    -----------------------------------------------------------
   TIME STEP LENGTH 2.61486E+05  4358.1      72.635      3.0265     8.28599E-03
 STRESS PERIOD TIME 2.61486E+05  4358.1      72.635      3.0265     8.28599E-03
         TOTAL TIME 3.48649E+05  5810.8      96.847      4.0353     1.10480E-02
1

 HEAD OBS#    6, ID obs2.2       IS DRY -- OMIT (OBS1BAS6HFM)

    12 OF   69 OBSERVATIONS OMITTED.  EXECUTION STOPS IF NUMBER OF REMAINING
 OBSERVATIONS IS LESS THAN OR EQUAL TO NUMBER OF PARAMETERS
1
                            STRESS PERIOD NO.    4, LENGTH =   522972.0    
                            -----------------------------------------------

                              NUMBER OF TIME STEPS =     1

                               MULTIPLIER FOR DELT =     1.000

                            INITIAL TIME STEP SIZE =   522972.0    

 Parameter:  WELLS_TR
 WELL NO.  LAYER   ROW   COL   STRESS RATE         
 --------------------------------------------------
      1      1      9     10      -1.100    
      2      2      9     10      -1.100    

      2 WELLS

 Parameter:  RIVERS
 REACH NO.  LAYER   ROW   COL     STAGE      CONDUCTANCE     BOTTOM EL.         
 -------------------------------------------------------------------------------
      1      1      1      1       100.0           1.200           90.00    
      2      1      2      1       100.0           1.200           90.00    
      3      1      3      1       100.0           1.200           90.00    
      4      1      4      1       100.0           1.200           90.00    
      5      1      5      1       100.0           1.200           90.00    
      6      1      6      1       100.0           1.200           90.00    
      7      1      7      1       100.0           1.200           90.00    
      8      1      8      1       100.0           1.200           90.00    
      9      1      9      1       100.0           1.200           90.00    
     10      1     10      1       100.0           1.200           90.00    
     11      1     11      1       100.0           1.200           90.00    
     12      1     12      1       100.0           1.200           90.00    
     13      1     13      1       100.0           1.200           90.00    
     14      1     14      1       100.0           1.200           90.00    
     15      1     15      1       100.0           1.200           90.00    
     16      1     16      1       100.0           1.200           90.00    
     17      1     17      1       100.0           1.200           90.00    
     18      1     18      1       100.0           1.200           90.00    

     18 RIVER REACHES

 REUSING NON-PARAMETER GHB CELLS FROM LAST STRESS PERIOD

     36 GHB CELLS

 REUSING RECH FROM LAST STRESS PERIOD
 
 SOLVING FOR HEAD 

 NO OUTPUT CONTROL FOR STRESS PERIOD    4   TIME STEP   1
1
  VOLUMETRIC BUDGET FOR ENTIRE MODEL AT END OF TIME STEP  1 IN STRESS PERIOD   4
  ------------------------------------------------------------------------------

     CUMULATIVE VOLUMES      L**3       RATES FOR THIS TIME STEP      L**3/T
     ------------------                 ------------------------

           IN:                                      IN:
           ---                                      ---
             STORAGE =      160719.9840               STORAGE =       6.2417E-02
       CONSTANT HEAD =           0.0000         CONSTANT HEAD =           0.0000
               WELLS =           0.0000                 WELLS =           0.0000
       RIVER LEAKAGE =           0.0000         RIVER LEAKAGE =           0.0000
     HEAD DEP BOUNDS =         385.8226       HEAD DEP BOUNDS =       4.4266E-04
            RECHARGE =           1.4406              RECHARGE =           0.0000

            TOTAL IN =      161107.2500              TOTAL IN =       6.2860E-02

          OUT:                                     OUT:
          ----                                     ----
             STORAGE =       65232.3164               STORAGE =       6.2863E-02
       CONSTANT HEAD =           0.0000         CONSTANT HEAD =           0.0000
               WELLS =       95878.2031                 WELLS =           0.0000
       RIVER LEAKAGE =           1.4412         RIVER LEAKAGE =           0.0000
     HEAD DEP BOUNDS =           0.0000       HEAD DEP BOUNDS =           0.0000
            RECHARGE =           0.0000              RECHARGE =           0.0000

           TOTAL OUT =      161111.9530             TOTAL OUT =       6.2863E-02

            IN - OUT =          -4.7131              IN - OUT =      -3.5881E-06

 PERCENT DISCREPANCY =           0.00     PERCENT DISCREPANCY =          -0.01






          TIME SUMMARY AT END OF TIME STEP   1 IN STRESS PERIOD    4
                    SECONDS     MINUTES      HOURS       DAYS        YEARS
                    -----------------------------------------------------------
   TIME STEP LENGTH 5.22972E+05  8716.2      145.27      6.0529     1.65720E-02
 STRESS PERIOD TIME 5.22972E+05  8716.2      145.27      6.0529     1.65720E-02
         TOTAL TIME 8.71621E+05  14527.      242.12      10.088     2.76200E-02
1

    12 OF   69 OBSERVATIONS OMITTED.  EXECUTION STOPS IF NUMBER OF REMAINING
 OBSERVATIONS IS LESS THAN OR EQUAL TO NUMBER OF PARAMETERS
 ALL CELLS INCLUDED IN THIS OBSERVATION ARE INACTIVE.  THE OBSERVATION WILL
 BE OMITTED FROM THIS PARAMETER-ESTIMATION ITERATION
1
                            STRESS PERIOD NO.    5, LENGTH =  0.2356745E+08
                            -----------------------------------------------

                              NUMBER OF TIME STEPS =     9

                               MULTIPLIER FOR DELT =     1.200

                            INITIAL TIME STEP SIZE =   1133110.    

 Parameter:  WELLS_TR
 WELL NO.  LAYER   ROW   COL   STRESS RATE         
 --------------------------------------------------
      1      1      9     10      -1.100    
      2      2      9     10      -1.100    

      2 WELLS

 Parameter:  RIVERS
 REACH NO.  LAYER   ROW   COL     STAGE      CONDUCTANCE     BOTTOM EL.         
 -------------------------------------------------------------------------------
      1      1      1      1       100.0           1.200           90.00    
      2      1      2      1       100.0           1.200           90.00    
      3      1      3      1       100.0           1.200           90.00    
      4      1      4      1       100.0           1.200           90.00    
      5      1      5      1       100.0           1.200           90.00    
      6      1      6      1       100.0           1.200           90.00    
      7      1      7      1       100.0           1.200           90.00    
      8      1      8      1       100.0           1.200           90.00    
      9      1      9      1       100.0           1.200           90.00    
     10      1     10      1       100.0           1.200           90.00    
     11      1     11      1       100.0           1.200           90.00    
     12      1     12      1       100.0           1.200           90.00    
     13      1     13      1       100.0           1.200           90.00    
     14      1     14      1       100.0           1.200           90.00    
     15      1     15      1       100.0           1.200           90.00    
     16      1     16      1       100.0           1.200           90.00    
     17      1     17      1       100.0           1.200           90.00    
     18      1     18      1       100.0           1.200           90.00    

     18 RIVER REACHES

 REUSING NON-PARAMETER GHB CELLS FROM LAST STRESS PERIOD

     36 GHB CELLS

 REUSING RECH FROM LAST STRESS PERIOD
 
 SOLVING FOR HEAD 

 NO OUTPUT CONTROL FOR STRESS PERIOD    5   TIME STEP   1

    12 OF   69 OBSERVATIONS OMITTED.  EXECUTION STOPS IF NUMBER OF REMAINING
 OBSERVATIONS IS LESS THAN OR EQUAL TO NUMBER OF PARAMETERS
 ALL CELLS INCLUDED IN THIS OBSERVATION ARE INACTIVE.  THE OBSERVATION WILL
 BE OMITTED FROM THIS PARAMETER-ESTIMATION ITERATION
 
 SOLVING FOR HEAD 

 NO OUTPUT CONTROL FOR STRESS PERIOD    5   TIME STEP   2

    12 OF   69 OBSERVATIONS OMITTED.  EXECUTION STOPS IF NUMBER OF REMAINING
 OBSERVATIONS IS LESS THAN OR EQUAL TO NUMBER OF PARAMETERS
 
 SOLVING FOR HEAD 

 NO OUTPUT CONTROL FOR STRESS PERIOD    5   TIME STEP   3

    12 OF   69 OBSERVATIONS OMITTED.  EXECUTION STOPS IF NUMBER OF REMAINING
 OBSERVATIONS IS LESS THAN OR EQUAL TO NUMBER OF PARAMETERS
 
 SOLVING FOR HEAD 

 NO OUTPUT CONTROL FOR STRESS PERIOD    5   TIME STEP   4

 HEAD OBS#    7, ID obs2.8       IS DRY -- OMIT (OBS1BAS6HFM)

    13 OF   69 OBSERVATIONS OMITTED.  EXECUTION STOPS IF NUMBER OF REMAINING
 OBSERVATIONS IS LESS THAN OR EQUAL TO NUMBER OF PARAMETERS
 
 SOLVING FOR HEAD 

 NO OUTPUT CONTROL FOR STRESS PERIOD    5   TIME STEP   5

    13 OF   69 OBSERVATIONS OMITTED.  EXECUTION STOPS IF NUMBER OF REMAINING
 OBSERVATIONS IS LESS THAN OR EQUAL TO NUMBER OF PARAMETERS
 
 SOLVING FOR HEAD 

 NO OUTPUT CONTROL FOR STRESS PERIOD    5   TIME STEP   6

    13 OF   69 OBSERVATIONS OMITTED.  EXECUTION STOPS IF NUMBER OF REMAINING
 OBSERVATIONS IS LESS THAN OR EQUAL TO NUMBER OF PARAMETERS
 
 SOLVING FOR HEAD 

 NO OUTPUT CONTROL FOR STRESS PERIOD    5   TIME STEP   7

    13 OF   69 OBSERVATIONS OMITTED.  EXECUTION STOPS IF NUMBER OF REMAINING
 OBSERVATIONS IS LESS THAN OR EQUAL TO NUMBER OF PARAMETERS
 
 SOLVING FOR HEAD 

 NO OUTPUT CONTROL FOR STRESS PERIOD    5   TIME STEP   8

 HEAD OBS#    3, ID obs1.12      IS DRY -- OMIT (OBS1BAS6HFM)

 HEAD OBS#    8, ID obs2.12      IS DRY -- OMIT (OBS1BAS6HFM)

 HEAD OBS#   11, ID obs3.12      OMITTED BECAUSE INITIAL OBSERVATION IS DRY OR
 HAS HAD ITS INTERPOLATION CHANGED (OBS1BAS6HFM)

 HEAD OBS#   14, ID obs4.12      IS DRY -- OMIT (OBS1BAS6HFM)

 HEAD OBS#   17, ID obs5.12      OMITTED BECAUSE INITIAL OBSERVATION IS DRY OR
 HAS HAD ITS INTERPOLATION CHANGED (OBS1BAS6HFM)

 HEAD OBS#   28, ID obs3.12d1    IS DRY -- OMIT (OBS1BAS6HFM)

 HEAD OBS#   34, ID obs5.12d1    IS DRY -- OMIT (OBS1BAS6HFM)

 HEAD OBS#   45, ID obs3.12d2    IS DRY -- OMIT (OBS1BAS6HFM)

 HEAD OBS#   60, ID obs8.12      IS DRY -- OMIT (OBS1BAS6HFM)

    22 OF   69 OBSERVATIONS OMITTED.  EXECUTION STOPS IF NUMBER OF REMAINING
 OBSERVATIONS IS LESS THAN OR EQUAL TO NUMBER OF PARAMETERS
 ALL CELLS INCLUDED IN THIS OBSERVATION ARE INACTIVE.  THE OBSERVATION WILL
 BE OMITTED FROM THIS PARAMETER-ESTIMATION ITERATION
 
 SOLVING FOR HEAD 

 OUTPUT CONTROL FOR STRESS PERIOD    5   TIME STEP   9
    PRINT HEAD FOR ALL LAYERS
1
              HEAD IN LAYER   1 AT END OF TIME STEP   9 IN STRESS PERIOD    5
  ---------------------------------------------------------------------------

          1      2      3      4      5      6      7      8      9     10
         11     12     13     14     15     16     17     18
 .........................................................................
   1  -999.0 -999.0 -999.0 -999.0 -999.0 -999.0 -999.0 -999.0 -999.0 -999.0
      -999.0 -999.0 -999.0 -999.0 -999.0 -999.0 -999.0 -999.0
   2  -999.0 -999.0 -999.0 -999.0 -999.0 -999.0 -999.0 -999.0 -999.0 -999.0
      -999.0 -999.0 -999.0 -999.0 -999.0 -999.0 -999.0 -999.0
   3  -999.0 -999.0 -999.0 -999.0 -999.0 -999.0 -999.0 -999.0 -999.0 -999.0
      -999.0 -999.0 -999.0 -999.0 -999.0 -999.0 -999.0 -999.0
   4  -999.0 -999.0 -999.0 -999.0 -999.0 -999.0 -999.0 -999.0 -999.0 -999.0
      -999.0 -999.0 -999.0 -999.0 -999.0 -999.0 -999.0 -999.0
   5  -999.0 -999.0 -999.0 -999.0 -999.0 -999.0 -999.0 -999.0 -999.0 -999.0
      -999.0 -999.0 -999.0 -999.0 -999.0 -999.0 -999.0 -999.0
   6  -999.0 -999.0 -999.0 -999.0 -999.0 -999.0 -999.0 -999.0 -999.0 -999.0
      -999.0 -999.0 -999.0 -999.0 -999.0 -999.0 -999.0 -999.0
   7  -999.0 -999.0 -999.0 -999.0 -999.0 -999.0 -999.0 -999.0 -999.0 -999.0
      -999.0 -999.0 -999.0 -999.0 -999.0 -999.0 -999.0 -999.0
   8  -999.0 -999.0 -999.0 -999.0 -999.0 -999.0 -999.0 -999.0 -999.0 -999.0
      -999.0 -999.0 -999.0 -999.0 -999.0 -999.0 -999.0 -999.0
   9  -999.0 -999.0 -999.0 -999.0 -999.0 -999.0 -999.0 -999.0 -999.0 -999.0
      -999.0 -999.0 -999.0 -999.0 -999.0 -999.0 -999.0 -999.0
  10  -999.0 -999.0 -999.0 -999.0 -999.0 -999.0 -999.0 -999.0 -999.0 -999.0
      -999.0 -999.0 -999.0 -999.0 -999.0 -999.0 -999.0 -999.0
  11  -999.0 -999.0 -999.0 -999.0 -999.0 -999.0 -999.0 -999.0 -999.0 -999.0
      -999.0 -999.0 -999.0 -999.0 -999.0 -999.0 -999.0 -999.0
  12  -999.0 -999.0 -999.0 -999.0 -999.0 -999.0 -999.0 -999.0 -999.0 -999.0
      -999.0 -999.0 -999.0 -999.0 -999.0 -999.0 -999.0 -999.0
  13  -999.0 -999.0 -999.0 -999.0 -999.0 -999.0 -999.0 -999.0 -999.0 -999.0
      -999.0 -999.0 -999.0 -999.0 -999.0 -999.0 -999.0 -999.0
  14  -999.0 -999.0 -999.0 -999.0 -999.0 -999.0 -999.0 -999.0 -999.0 -999.0
      -999.0 -999.0 -999.0 -999.0 -999.0 -999.0 -999.0 -999.0
  15  -999.0 -999.0 -999.0 -999.0 -999.0 -999.0 -999.0 -999.0 -999.0 -999.0
      -999.0 -999.0 -999.0 -999.0 -999.0 -999.0 -999.0 -999.0
  16  -999.0 -999.0 -999.0 -999.0 -999.0 -999.0 -999.0 -999.0 -999.0 -999.0
      -999.0 -999.0 -999.0 -999.0 -999.0 -999.0 -999.0 -999.0
  17  -999.0 -999.0 -999.0 -999.0 -999.0 -999.0 -999.0 -999.0 -999.0 -999.0
      -999.0 -999.0 -999.0 -999.0 -999.0 -999.0 -999.0 -999.0
  18  -999.0 -999.0 -999.0 -999.0 -999.0 -999.0 -999.0 -999.0 -999.0 -999.0
      -999.0 -999.0 -999.0 -999.0 -999.0 -999.0 -999.0 -999.0
1
              HEAD IN LAYER   2 AT END OF TIME STEP   9 IN STRESS PERIOD    5
  ---------------------------------------------------------------------------

          1      2      3      4      5      6      7      8      9     10
         11     12     13     14     15     16     17     18
 .........................................................................
   1   103.6  103.6  103.6  103.6  103.7  103.7  103.7  103.7  103.7  103.7
       103.7  103.7  103.7  103.7  103.7  103.7  103.8  103.8
   2   103.6  103.6  103.6  103.6  103.7  103.7  103.7  103.7  103.7  103.7
       103.7  103.7  103.7  103.7  103.7  103.7  103.8  103.8
   3   103.6  103.6  103.6  103.6  103.7  103.7  103.7  103.7  103.7  103.7
       103.7  103.7  103.7  103.7  103.7  103.7  103.8  103.8
   4   103.6  103.6  103.6  103.6  103.7  103.7  103.7  103.7  103.7  103.7
       103.7  103.7  103.7  103.7  103.7  103.7  103.8  103.8
   5   103.6  103.6  103.6  103.6  103.7  103.7  103.7  103.7  103.7  103.7
       103.7  103.7  103.7  103.7  103.7  103.7  103.8  103.8
   6   103.6  103.6  103.6  103.6  103.7  103.7  103.7  103.7  103.7  103.7
       103.7  103.7  103.7  103.7  103.7  103.7  103.8  103.8
   7   103.6  103.6  103.6  103.6  103.6  103.7  103.7  103.7  103.7  103.7
       103.7  103.7  103.7  103.7  103.7  103.7  103.8  103.8
   8   103.6  103.6  103.6  103.6  103.6  103.7  103.7  103.7  103.7  103.7
       103.7  103.7  103.7  103.7  103.7  103.8  103.8  103.8
   9   103.6  103.6  103.6  103.6  103.6  103.7  103.7  103.7  103.7 -999.0
       103.7  103.7  103.7  103.7  103.7  103.8  103.8  103.8
  10   103.6  103.6  103.6  103.6  103.6  103.7  103.7  103.7 -999.0  103.7
       103.7  103.7  103.7  103.7  103.7  103.8  103.8  103.8
  11   103.6  103.6  103.6  103.6  103.6  103.7  103.7  103.7  103.7  103.7
       103.7  103.7  103.7  103.7  103.7  103.8  103.8  103.8
  12   103.6  103.6  103.6  103.6  103.7  103.7  103.7  103.7  103.7  103.7
       103.7  103.7  103.7  103.7  103.7  103.8  103.8  103.8
  13   103.6  103.6  103.6  103.6  103.7  103.7  103.7  103.7  103.7  103.7
       103.7  103.7  103.7  103.7  103.7  103.8  103.8  103.8
  14   103.6  103.6  103.6  103.6  103.7 -999.0  103.7  103.7  103.7  103.7
       103.7  103.7  103.7  103.7  103.7  103.8  103.8  103.8
  15   103.6  103.6  103.6  103.6  103.7  103.7  103.7  103.7  103.7  103.7
       103.7  103.7  103.7  103.7  103.7  103.8  103.8  103.8
  16   103.6  103.6  103.6  103.6  103.7  103.7  103.7  103.7  103.7  103.7
       103.7  103.7  103.7  103.7  103.7  103.8  103.8  103.8
  17   103.6  103.6  103.6  103.6  103.7  103.7  103.7  103.7  103.7  103.7
       103.7  103.7  103.7  103.7  103.7  103.8  103.8  103.8
  18   103.6  103.6  103.6  103.6  103.7  103.7  103.7  103.7  103.7  103.7
       103.7  103.7  103.7  103.7  103.7  103.8  103.8  103.8
1
              HEAD IN LAYER   3 AT END OF TIME STEP   9 IN STRESS PERIOD    5
  ---------------------------------------------------------------------------

          1      2      3      4      5      6      7      8      9     10
         11     12     13     14     15     16     17     18
 .........................................................................
   1   103.6  103.6  103.6  103.6  103.7  103.7  103.7  103.7  103.7  103.7
       103.7  103.7  103.7  103.7  103.7  103.7  103.8  103.8
   2   103.6  103.6  103.6  103.6  103.7  103.7  103.7  103.7  103.7  103.7
       103.7  103.7  103.7  103.7  103.7  103.7  103.8  103.8
   3   103.6  103.6  103.6  103.6  103.7  103.7  103.7  103.7  103.7  103.7
       103.7  103.7  103.7  103.7  103.7  103.7  103.8  103.8
   4   103.6  103.6  103.6  103.6  103.7  103.7  103.7  103.7  103.7  103.7
       103.7  103.7  103.7  103.7  103.7  103.7  103.8  103.8
   5   103.6  103.6  103.6  103.6  103.7  103.7  103.7  103.7  103.7  103.7
       103.7  103.7  103.7  103.7  103.7  103.7  103.8  103.8
   6   103.6  103.6  103.6  103.6  103.7  103.7  103.7  103.7  103.7  103.7
       103.7  103.7  103.7  103.7  103.7  103.7  103.8  103.8
   7   103.6  103.6  103.6  103.6  103.7  103.7  103.7  103.7  103.7  103.7
       103.7  103.7  103.7  103.7  103.7  103.7  103.8  103.8
   8   103.6  103.6  103.6  103.6  103.7  103.7  103.7  103.7  103.7  103.7
       103.7  103.7  103.7  103.7  103.7  103.7  103.8  103.8
   9   103.6  103.6  103.6  103.6  103.7  103.7  103.7  103.7  103.7  103.7
       103.7  103.7  103.7  103.7  103.7  103.7  103.8  103.8
  10   103.6  103.6  103.6  103.6  103.7  103.7  103.7  103.7 -999.0  103.7
       103.7  103.7  103.7  103.7  103.7  103.7  103.8  103.8
  11   103.6  103.6  103.6  103.6  103.7  103.7  103.7  103.7  103.7  103.7
       103.7  103.7  103.7  103.7  103.7  103.7  103.8  103.8
  12   103.6  103.6  103.6  103.6  103.7  103.7  103.7  103.7  103.7  103.7
       103.7  103.7  103.7  103.7  103.7  103.7  103.8  103.8
  13   103.6  103.6  103.6  103.6  103.7  103.7  103.7  103.7  103.7  103.7
       103.7  103.7  103.7  103.7  103.7  103.7  103.8  103.8
  14   103.6  103.6  103.6  103.6  103.7  103.7  103.7  103.7  103.7  103.7
       103.7  103.7  103.7  103.7  103.7  103.7  103.8  103.8
  15   103.6  103.6  103.6  103.6  103.7  103.7  103.7  103.7  103.7  103.7
       103.7  103.7  103.7  103.7  103.7  103.7  103.8  103.8
  16   103.6  103.6  103.6  103.6  103.7  103.7  103.7  103.7  103.7  103.7
       103.7  103.7  103.7  103.7  103.7  103.7  103.8  103.8
  17   103.6  103.6  103.6  103.6  103.7  103.7  103.7  103.7  103.7  103.7
       103.7  103.7  103.7  103.7  103.7  103.7  103.8  103.8
  18   103.6  103.6  103.6  103.6  103.7  103.7  103.7  103.7  103.7  103.7
       103.7  103.7  103.7  103.7  103.7  103.7  103.8  103.8
1
  VOLUMETRIC BUDGET FOR ENTIRE MODEL AT END OF TIME STEP  9 IN STRESS PERIOD   5
  ------------------------------------------------------------------------------

     CUMULATIVE VOLUMES      L**3       RATES FOR THIS TIME STEP      L**3/T
     ------------------                 ------------------------

           IN:                                      IN:
           ---                                      ---
             STORAGE =      342513.2190               STORAGE =       1.5381E-03
       CONSTANT HEAD =           0.0000         CONSTANT HEAD =           0.0000
               WELLS =           0.0000                 WELLS =           0.0000
       RIVER LEAKAGE =           0.0000         RIVER LEAKAGE =           0.0000
     HEAD DEP BOUNDS =       10827.2930       HEAD DEP BOUNDS =       4.4324E-04
            RECHARGE =           1.4406              RECHARGE =           0.0000

            TOTAL IN =      353341.9380              TOTAL IN =       1.9813E-03

          OUT:                                     OUT:
          ----                                     ----
             STORAGE =      257460.0160               STORAGE =       1.9808E-03
       CONSTANT HEAD =           0.0000         CONSTANT HEAD =           0.0000
               WELLS =       95878.2031                 WELLS =           0.0000
       RIVER LEAKAGE =           1.4412         RIVER LEAKAGE =           0.0000
     HEAD DEP BOUNDS =           0.0000       HEAD DEP BOUNDS =           0.0000
            RECHARGE =           0.0000              RECHARGE =           0.0000

           TOTAL OUT =      353339.6560             TOTAL OUT =       1.9808E-03

            IN - OUT =           2.2924              IN - OUT =       5.2465E-07

 PERCENT DISCREPANCY =           0.00     PERCENT DISCREPANCY =           0.03






          TIME SUMMARY AT END OF TIME STEP   9 IN STRESS PERIOD    5
                    SECONDS     MINUTES      HOURS       DAYS        YEARS
                    -----------------------------------------------------------
   TIME STEP LENGTH 4.87217E+06  81203.      1353.4      56.391     0.15439    
 STRESS PERIOD TIME 2.35675E+07 3.92791E+05  6546.5      272.77     0.74681    
         TOTAL TIME 2.44391E+07 4.07318E+05  6788.6      282.86     0.77443    
1

    22 OF   69 OBSERVATIONS OMITTED.  EXECUTION STOPS IF NUMBER OF REMAINING
 OBSERVATIONS IS LESS THAN OR EQUAL TO NUMBER OF PARAMETERS
 ALL CELLS INCLUDED IN THIS OBSERVATION ARE INACTIVE.  THE OBSERVATION WILL
 BE OMITTED FROM THIS PARAMETER-ESTIMATION ITERATION

 DATA AT HEAD LOCATIONS

        OBSERVATION     OBSER-     SIMUL.                          WEIGHTED
   OBS#    NAME         VATION     EQUIV.    RESIDUAL  WEIGHT**.5  RESIDUAL
                          *          *
      1 obs1.0          102.       100.       1.74      0.999       1.74    
      2 obs1.1        -0.290E-01     OMITTED
      3 obs1.12       -0.129         OMITTED
      4 obs2.0          128.       104.       24.0      0.999       24.0    
      5 obs2.1        -0.410E-01     OMITTED
      6 obs2.2        -0.557         OMITTED
      7 obs2.8         -11.5         OMITTED
      8 obs2.12        -14.2         OMITTED
      9 obs3.0          157.         OMITTED
     10 obs3.1         -4.38         OMITTED
     11 obs3.12        -42.5         OMITTED
     12 obs4.0          125.       104.       20.8      0.999       20.8    
     13 obs4.1        -0.670E-01     OMITTED
     14 obs4.12        -14.3         OMITTED
     15 obs5.0          141.         OMITTED
     16 obs5.1        -0.600E-01     OMITTED
     17 obs5.12        -21.7         OMITTED
     18 obs1.0d1        102.       100.       1.73      0.999       1.73    
     19 obs1.1d1      -0.290E-01  0.140     -0.169       20.0      -3.37    
     20 obs1.12d1     -0.129       3.53      -3.66       20.0      -73.2    
     21 obs2.0d1        128.       104.       24.0      0.999       24.0    
     22 obs2.1d1      -0.410E-01 -0.855E-01  0.445E-01   20.0      0.891    
     23 obs2.2d1      -0.557     -0.262     -0.295       20.0      -5.90    
     24 obs2.8d1       -11.5     -0.663      -10.9       20.0      -217.    
     25 obs2.12d1      -14.2     -0.474      -13.7       20.0      -274.    
     26 obs3.0d1        157.       104.       52.6      0.999       52.5    
     27 obs3.1d1       -4.38         OMITTED
     28 obs3.12d1      -42.5         OMITTED
     29 obs4.0d1        125.       104.       20.8      0.999       20.8    
     30 obs4.1d1      -0.670E-01 -0.856E-01  0.186E-01   20.0      0.372    
     31 obs4.12d1      -14.3     -0.474      -13.8       20.0      -277.    
     32 obs5.0d1        141.       104.       36.9      0.999       36.8    
     33 obs5.1d1      -0.600E-01     OMITTED
     34 obs5.12d1      -21.7         OMITTED
     35 obs1.0d2        102.       100.       1.38      0.999       1.38    
     36 obs1.1d2      -0.290E-01  0.100     -0.129       20.0      -2.59    
     37 obs1.12d2     -0.129       3.18      -3.31       20.0      -66.2    
     38 obs2.0d2        128.       104.       24.2      0.999       24.1    
     39 obs2.1d2      -0.410E-01 -0.522E-01  0.112E-01   20.0      0.225    
     40 obs2.2d2      -0.557     -0.187     -0.370       20.0      -7.39    
     41 obs2.8d2       -11.5     -0.489      -11.0       20.0      -221.    
     42 obs2.12d2      -14.2     -0.304      -13.9       20.0      -278.    
     43 obs3.0d2        157.       104.       52.6      0.999       52.5    
     44 obs3.1d2       -4.38         OMITTED
     45 obs3.12d2      -42.5         OMITTED
     46 obs4.0d2        125.       104.       21.0      0.999       20.9    
     47 obs4.1d2      -0.670E-01 -0.526E-01 -0.144E-01   20.0     -0.288    
     48 obs4.12d2      -14.3     -0.304      -14.0       20.0      -280.    
     49 obs5.0d2        141.       104.       36.9      0.999       36.8    
     50 obs5.1d2      -0.600E-01 -0.199E-01 -0.401E-01   20.0     -0.802    
     51 obs5.12d2      -21.7     -0.416      -21.3       20.0      -425.    
     52 obs6.0          127.       104.       22.6      0.999       22.6    
     53 obs6.1         0.500E-02 -0.522E-01  0.572E-01   20.0       1.14    
     54 obs6.12        -14.4     -0.304      -14.1       20.0      -281.    
     55 obs7.0          101.       100.      0.689      0.999      0.688    
     56 obs7.1         0.480E-01  0.100     -0.524E-01   20.0      -1.05    
     57 obs7.12       -0.568       3.18      -3.75       20.0      -74.9    
     58 obs8.0          158.       104.       54.0      0.999       54.0    
     59 obs8.1         -5.53         OMITTED
     60 obs8.12        -43.2         OMITTED
     61 obs9.0          176.       104.       72.3      0.999       72.2    
     62 obs9.1        -0.992E-03 -0.478E-02  0.378E-02   20.0      0.757E-01
     63 obs9.12        -38.2     -0.338      -37.9       20.0      -758.    
     64 obs0.0          142.       104.       37.9      0.999       37.9    
     65 obs0.1        -0.130E-01 -0.842E-02 -0.458E-02   20.0     -0.916E-01
     66 obs0.12        -19.9     -0.410      -19.5       20.0      -390.    

 * THE OBSERVATION (AND CORRESPONDING SIMULATED EQUIVALENT) IS HEAD OR TEMPORAL
   CHANGE IN HEAD, AS SPECIFIED IN THE "HOB" INPUT FILE.  NEGATIVE TEMPORAL
   CHANGES INDICATE DRAWDOWN.

 STATISTICS FOR HEAD RESIDUALS :
 MAXIMUM WEIGHTED RESIDUAL  :  72.2     OBS#     61
 MINIMUM WEIGHTED RESIDUAL  : -758.     OBS#     63
 AVERAGE WEIGHTED RESIDUAL  : -71.1    
 # RESIDUALS >= 0. :     23
 # RESIDUALS < 0.  :     21
 NUMBER OF RUNS  :   22  IN   44 OBSERVATIONS

 SUM OF SQUARED WEIGHTED RESIDUALS (HEADS ONLY)  0.14268E+07

 DATA FOR FLOWS REPRESENTED USING THE RIVER PACKAGE

        OBSERVATION      MEAS.      CALC.                          WEIGHTED
   OBS#    NAME          FLOW       FLOW     RESIDUAL  WEIGHT**.5  RESIDUAL

     67 obsSS          -4.40      -1.44      -2.96       2.50      -7.40    
     68 obsTR3         -4.10       0.00      -4.10       2.63      -10.8    
     69 obsTR12        -2.20       0.00      -2.20       4.76      -10.5    

 STATISTICS FOR RIVER FLOW RESIDUALS :
 MAXIMUM WEIGHTED RESIDUAL  : -7.40     OBS#     67
 MINIMUM WEIGHTED RESIDUAL  : -10.8     OBS#     68
 AVERAGE WEIGHTED RESIDUAL  : -9.55    
 # RESIDUALS >= 0. :      0
 # RESIDUALS < 0.  :      3
 NUMBER OF RUNS:      1  IN      3 OBSERVATIONS

 SUM OF SQUARED WEIGHTED RESIDUALS (RIVER FLOWS ONLY)   280.88    

 SUM OF SQUARED WEIGHTED RESIDUALS (ALL DEPENDENT VARIABLES)  0.14271E+07

 STATISTICS FOR ALL RESIDUALS :
 AVERAGE WEIGHTED RESIDUAL  :-0.672E+02
 # RESIDUALS >= 0. :     23
 # RESIDUALS < 0.  :     24
 NUMBER OF RUNS  :   22  IN   47 OBSERVATIONS

 INTERPRETING THE CALCULATED RUNS STATISTIC VALUE OF    -0.587    
 NOTE: THE FOLLOWING APPLIES ONLY IF 
        # RESIDUALS >= 0 . IS GREATER THAN 10 AND 
        # RESIDUALS < 0.   IS GREATER THAN 10
 THE NEGATIVE VALUE MAY INDICATE TOO FEW RUNS:
    IF THE VALUE IS LESS THAN -1.28, THERE IS LESS THAN A 10 PERCENT
       CHANCE THE VALUES ARE RANDOM,
    IF THE VALUE IS LESS THAN -1.645, THERE IS LESS THAN A 5 PERCENT
       CHANCE THE VALUES ARE RANDOM,
    IF THE VALUE IS LESS THAN -1.96, THERE IS LESS THAN A 2.5 PERCENT
       CHANCE THE VALUES ARE RANDOM.


 ORDERED DEPENDENT-VARIABLE WEIGHTED RESIDUALS
 NUMBER OF RESIDUALS INCLUDED:        47
     -758.      -425.      -390.      -281.      -280.      -278.      -277.    
     -274.      -221.      -217.      -74.9      -73.2      -66.2      -10.8    
     -10.5      -7.40      -7.39      -5.90      -3.37      -2.59      -1.05    
    -0.802     -0.288     -0.916E-01  0.757E-01  0.225      0.372      0.688    
     0.891       1.14       1.38       1.73       1.74       20.8       20.8    
      20.9       22.6       24.0       24.0       24.1       36.8       36.8    
      37.9       52.5       52.5       54.0       72.2    

 CORRELATION BETWEEN ORDERED WEIGHTED RESIDUALS AND NORMAL ORDER STATISTICS
 FOR OBSERVATIONS =    0.665    

 --------------------------------------------------------------------------
 COMMENTS ON THE INTERPRETATION OF THE CORRELATION BETWEEN
 WEIGHTED RESIDUALS AND NORMAL ORDER STATISTICS:

 The critical value for correlation at the 5% significance level is 0.966

 IF the reported CORRELATION is GREATER than the 5% critical value, ACCEPT
 the hypothesis that the weighted residuals are INDEPENDENT AND NORMALLY
 DISTRIBUTED at the 5% significance level.  The probability that this   
 conclusion is wrong is less than 5%.

 IF the reported correlation IS LESS THAN the 5% critical value REJECT the
 hypothesis that the weighted residuals are INDEPENDENT AND NORMALLY
 DISTRIBUTED at the 5% significance level.

 The analysis can also be done using the 10% significance level.
 The associated critical value is 0.972
 --------------------------------------------------------------------------

